[root]
type=Root
children=system
eventq_index=0
full_system=false
sim_quantum=0
time_sync_enable=false
time_sync_period=100000000
time_sync_spin_threshold=100000

[system]
type=System
children=clk_domain cpu000 cpu001 cpu002 cpu003 cpu004 cpu005 cpu006 cpu007 cpu008 cpu009 cpu010 cpu011 cpu012 cpu013 cpu014 cpu015 cpu016 cpu017 cpu018 cpu019 cpu020 cpu021 cpu022 cpu023 cpu024 cpu025 cpu026 cpu027 cpu028 cpu029 cpu030 cpu031 cpu032 cpu033 cpu034 cpu035 cpu036 cpu037 cpu038 cpu039 cpu040 cpu041 cpu042 cpu043 cpu044 cpu045 cpu046 cpu047 cpu048 cpu049 cpu050 cpu051 cpu052 cpu053 cpu054 cpu055 cpu056 cpu057 cpu058 cpu059 cpu060 cpu061 cpu062 cpu063 cpu064 cpu065 cpu066 cpu067 cpu068 cpu069 cpu070 cpu071 cpu072 cpu073 cpu074 cpu075 cpu076 cpu077 cpu078 cpu079 cpu080 cpu081 cpu082 cpu083 cpu084 cpu085 cpu086 cpu087 cpu088 cpu089 cpu090 cpu091 cpu092 cpu093 cpu094 cpu095 cpu096 cpu097 cpu098 cpu099 cpu100 cpu101 cpu102 cpu103 cpu104 cpu105 cpu106 cpu107 cpu108 cpu109 cpu110 cpu111 cpu112 cpu113 cpu114 cpu115 cpu116 cpu117 cpu118 cpu119 cpu120 cpu121 cpu122 cpu123 cpu124 cpu125 cpu126 cpu127 cpu128 cpu129 cpu130 cpu131 cpu132 cpu133 cpu134 cpu135 cpu136 cpu137 cpu138 cpu139 cpu140 cpu141 cpu142 cpu143 cpu144 cpu145 cpu146 cpu147 cpu148 cpu149 cpu150 cpu151 cpu152 cpu153 cpu154 cpu155 cpu156 cpu157 cpu158 cpu159 cpu160 cpu161 cpu162 cpu163 cpu164 cpu165 cpu166 cpu167 cpu168 cpu169 cpu170 cpu171 cpu172 cpu173 cpu174 cpu175 cpu176 cpu177 cpu178 cpu179 cpu180 cpu181 cpu182 cpu183 cpu184 cpu185 cpu186 cpu187 cpu188 cpu189 cpu190 cpu191 cpu192 cpu193 cpu194 cpu195 cpu196 cpu197 cpu198 cpu199 cpu200 cpu201 cpu202 cpu203 cpu204 cpu205 cpu206 cpu207 cpu208 cpu209 cpu210 cpu211 cpu212 cpu213 cpu214 cpu215 cpu216 cpu217 cpu218 cpu219 cpu220 cpu221 cpu222 cpu223 cpu224 cpu225 cpu226 cpu227 cpu228 cpu229 cpu230 cpu231 cpu232 cpu233 cpu234 cpu235 cpu236 cpu237 cpu238 cpu239 cpu240 cpu241 cpu242 cpu243 cpu244 cpu245 cpu246 cpu247 cpu248 cpu249 cpu250 cpu251 cpu252 cpu253 cpu254 cpu255 dvfs_handler mem_ctrls000 mem_ctrls001 mem_ctrls002 mem_ctrls003 mem_ctrls004 mem_ctrls005 mem_ctrls006 mem_ctrls007 mem_ctrls008 mem_ctrls009 mem_ctrls010 mem_ctrls011 mem_ctrls012 mem_ctrls013 mem_ctrls014 mem_ctrls015 mem_ctrls016 mem_ctrls017 mem_ctrls018 mem_ctrls019 mem_ctrls020 mem_ctrls021 mem_ctrls022 mem_ctrls023 mem_ctrls024 mem_ctrls025 mem_ctrls026 mem_ctrls027 mem_ctrls028 mem_ctrls029 mem_ctrls030 mem_ctrls031 mem_ctrls032 mem_ctrls033 mem_ctrls034 mem_ctrls035 mem_ctrls036 mem_ctrls037 mem_ctrls038 mem_ctrls039 mem_ctrls040 mem_ctrls041 mem_ctrls042 mem_ctrls043 mem_ctrls044 mem_ctrls045 mem_ctrls046 mem_ctrls047 mem_ctrls048 mem_ctrls049 mem_ctrls050 mem_ctrls051 mem_ctrls052 mem_ctrls053 mem_ctrls054 mem_ctrls055 mem_ctrls056 mem_ctrls057 mem_ctrls058 mem_ctrls059 mem_ctrls060 mem_ctrls061 mem_ctrls062 mem_ctrls063 mem_ctrls064 mem_ctrls065 mem_ctrls066 mem_ctrls067 mem_ctrls068 mem_ctrls069 mem_ctrls070 mem_ctrls071 mem_ctrls072 mem_ctrls073 mem_ctrls074 mem_ctrls075 mem_ctrls076 mem_ctrls077 mem_ctrls078 mem_ctrls079 mem_ctrls080 mem_ctrls081 mem_ctrls082 mem_ctrls083 mem_ctrls084 mem_ctrls085 mem_ctrls086 mem_ctrls087 mem_ctrls088 mem_ctrls089 mem_ctrls090 mem_ctrls091 mem_ctrls092 mem_ctrls093 mem_ctrls094 mem_ctrls095 mem_ctrls096 mem_ctrls097 mem_ctrls098 mem_ctrls099 mem_ctrls100 mem_ctrls101 mem_ctrls102 mem_ctrls103 mem_ctrls104 mem_ctrls105 mem_ctrls106 mem_ctrls107 mem_ctrls108 mem_ctrls109 mem_ctrls110 mem_ctrls111 mem_ctrls112 mem_ctrls113 mem_ctrls114 mem_ctrls115 mem_ctrls116 mem_ctrls117 mem_ctrls118 mem_ctrls119 mem_ctrls120 mem_ctrls121 mem_ctrls122 mem_ctrls123 mem_ctrls124 mem_ctrls125 mem_ctrls126 mem_ctrls127 mem_ctrls128 mem_ctrls129 mem_ctrls130 mem_ctrls131 mem_ctrls132 mem_ctrls133 mem_ctrls134 mem_ctrls135 mem_ctrls136 mem_ctrls137 mem_ctrls138 mem_ctrls139 mem_ctrls140 mem_ctrls141 mem_ctrls142 mem_ctrls143 mem_ctrls144 mem_ctrls145 mem_ctrls146 mem_ctrls147 mem_ctrls148 mem_ctrls149 mem_ctrls150 mem_ctrls151 mem_ctrls152 mem_ctrls153 mem_ctrls154 mem_ctrls155 mem_ctrls156 mem_ctrls157 mem_ctrls158 mem_ctrls159 mem_ctrls160 mem_ctrls161 mem_ctrls162 mem_ctrls163 mem_ctrls164 mem_ctrls165 mem_ctrls166 mem_ctrls167 mem_ctrls168 mem_ctrls169 mem_ctrls170 mem_ctrls171 mem_ctrls172 mem_ctrls173 mem_ctrls174 mem_ctrls175 mem_ctrls176 mem_ctrls177 mem_ctrls178 mem_ctrls179 mem_ctrls180 mem_ctrls181 mem_ctrls182 mem_ctrls183 mem_ctrls184 mem_ctrls185 mem_ctrls186 mem_ctrls187 mem_ctrls188 mem_ctrls189 mem_ctrls190 mem_ctrls191 mem_ctrls192 mem_ctrls193 mem_ctrls194 mem_ctrls195 mem_ctrls196 mem_ctrls197 mem_ctrls198 mem_ctrls199 mem_ctrls200 mem_ctrls201 mem_ctrls202 mem_ctrls203 mem_ctrls204 mem_ctrls205 mem_ctrls206 mem_ctrls207 mem_ctrls208 mem_ctrls209 mem_ctrls210 mem_ctrls211 mem_ctrls212 mem_ctrls213 mem_ctrls214 mem_ctrls215 mem_ctrls216 mem_ctrls217 mem_ctrls218 mem_ctrls219 mem_ctrls220 mem_ctrls221 mem_ctrls222 mem_ctrls223 mem_ctrls224 mem_ctrls225 mem_ctrls226 mem_ctrls227 mem_ctrls228 mem_ctrls229 mem_ctrls230 mem_ctrls231 mem_ctrls232 mem_ctrls233 mem_ctrls234 mem_ctrls235 mem_ctrls236 mem_ctrls237 mem_ctrls238 mem_ctrls239 mem_ctrls240 mem_ctrls241 mem_ctrls242 mem_ctrls243 mem_ctrls244 mem_ctrls245 mem_ctrls246 mem_ctrls247 mem_ctrls248 mem_ctrls249 mem_ctrls250 mem_ctrls251 mem_ctrls252 mem_ctrls253 mem_ctrls254 mem_ctrls255 ruby sys_port_proxy voltage_domain
boot_osflags=a
cache_line_size=64
clk_domain=system.clk_domain
default_p_state=UNDEFINED
eventq_index=0
exit_on_work_items=false
init_param=0
kernel=
kernel_addr_check=true
kernel_extras=
load_addr_mask=18446744073709551615
load_offset=0
mem_mode=timing
mem_ranges=0:536870911:0:0:0:0
memories=system.mem_ctrls000 system.mem_ctrls001 system.mem_ctrls002 system.mem_ctrls003 system.mem_ctrls004 system.mem_ctrls005 system.mem_ctrls006 system.mem_ctrls007 system.mem_ctrls008 system.mem_ctrls009 system.mem_ctrls010 system.mem_ctrls011 system.mem_ctrls012 system.mem_ctrls013 system.mem_ctrls014 system.mem_ctrls015 system.mem_ctrls016 system.mem_ctrls017 system.mem_ctrls018 system.mem_ctrls019 system.mem_ctrls020 system.mem_ctrls021 system.mem_ctrls022 system.mem_ctrls023 system.mem_ctrls024 system.mem_ctrls025 system.mem_ctrls026 system.mem_ctrls027 system.mem_ctrls028 system.mem_ctrls029 system.mem_ctrls030 system.mem_ctrls031 system.mem_ctrls032 system.mem_ctrls033 system.mem_ctrls034 system.mem_ctrls035 system.mem_ctrls036 system.mem_ctrls037 system.mem_ctrls038 system.mem_ctrls039 system.mem_ctrls040 system.mem_ctrls041 system.mem_ctrls042 system.mem_ctrls043 system.mem_ctrls044 system.mem_ctrls045 system.mem_ctrls046 system.mem_ctrls047 system.mem_ctrls048 system.mem_ctrls049 system.mem_ctrls050 system.mem_ctrls051 system.mem_ctrls052 system.mem_ctrls053 system.mem_ctrls054 system.mem_ctrls055 system.mem_ctrls056 system.mem_ctrls057 system.mem_ctrls058 system.mem_ctrls059 system.mem_ctrls060 system.mem_ctrls061 system.mem_ctrls062 system.mem_ctrls063 system.mem_ctrls064 system.mem_ctrls065 system.mem_ctrls066 system.mem_ctrls067 system.mem_ctrls068 system.mem_ctrls069 system.mem_ctrls070 system.mem_ctrls071 system.mem_ctrls072 system.mem_ctrls073 system.mem_ctrls074 system.mem_ctrls075 system.mem_ctrls076 system.mem_ctrls077 system.mem_ctrls078 system.mem_ctrls079 system.mem_ctrls080 system.mem_ctrls081 system.mem_ctrls082 system.mem_ctrls083 system.mem_ctrls084 system.mem_ctrls085 system.mem_ctrls086 system.mem_ctrls087 system.mem_ctrls088 system.mem_ctrls089 system.mem_ctrls090 system.mem_ctrls091 system.mem_ctrls092 system.mem_ctrls093 system.mem_ctrls094 system.mem_ctrls095 system.mem_ctrls096 system.mem_ctrls097 system.mem_ctrls098 system.mem_ctrls099 system.mem_ctrls100 system.mem_ctrls101 system.mem_ctrls102 system.mem_ctrls103 system.mem_ctrls104 system.mem_ctrls105 system.mem_ctrls106 system.mem_ctrls107 system.mem_ctrls108 system.mem_ctrls109 system.mem_ctrls110 system.mem_ctrls111 system.mem_ctrls112 system.mem_ctrls113 system.mem_ctrls114 system.mem_ctrls115 system.mem_ctrls116 system.mem_ctrls117 system.mem_ctrls118 system.mem_ctrls119 system.mem_ctrls120 system.mem_ctrls121 system.mem_ctrls122 system.mem_ctrls123 system.mem_ctrls124 system.mem_ctrls125 system.mem_ctrls126 system.mem_ctrls127 system.mem_ctrls128 system.mem_ctrls129 system.mem_ctrls130 system.mem_ctrls131 system.mem_ctrls132 system.mem_ctrls133 system.mem_ctrls134 system.mem_ctrls135 system.mem_ctrls136 system.mem_ctrls137 system.mem_ctrls138 system.mem_ctrls139 system.mem_ctrls140 system.mem_ctrls141 system.mem_ctrls142 system.mem_ctrls143 system.mem_ctrls144 system.mem_ctrls145 system.mem_ctrls146 system.mem_ctrls147 system.mem_ctrls148 system.mem_ctrls149 system.mem_ctrls150 system.mem_ctrls151 system.mem_ctrls152 system.mem_ctrls153 system.mem_ctrls154 system.mem_ctrls155 system.mem_ctrls156 system.mem_ctrls157 system.mem_ctrls158 system.mem_ctrls159 system.mem_ctrls160 system.mem_ctrls161 system.mem_ctrls162 system.mem_ctrls163 system.mem_ctrls164 system.mem_ctrls165 system.mem_ctrls166 system.mem_ctrls167 system.mem_ctrls168 system.mem_ctrls169 system.mem_ctrls170 system.mem_ctrls171 system.mem_ctrls172 system.mem_ctrls173 system.mem_ctrls174 system.mem_ctrls175 system.mem_ctrls176 system.mem_ctrls177 system.mem_ctrls178 system.mem_ctrls179 system.mem_ctrls180 system.mem_ctrls181 system.mem_ctrls182 system.mem_ctrls183 system.mem_ctrls184 system.mem_ctrls185 system.mem_ctrls186 system.mem_ctrls187 system.mem_ctrls188 system.mem_ctrls189 system.mem_ctrls190 system.mem_ctrls191 system.mem_ctrls192 system.mem_ctrls193 system.mem_ctrls194 system.mem_ctrls195 system.mem_ctrls196 system.mem_ctrls197 system.mem_ctrls198 system.mem_ctrls199 system.mem_ctrls200 system.mem_ctrls201 system.mem_ctrls202 system.mem_ctrls203 system.mem_ctrls204 system.mem_ctrls205 system.mem_ctrls206 system.mem_ctrls207 system.mem_ctrls208 system.mem_ctrls209 system.mem_ctrls210 system.mem_ctrls211 system.mem_ctrls212 system.mem_ctrls213 system.mem_ctrls214 system.mem_ctrls215 system.mem_ctrls216 system.mem_ctrls217 system.mem_ctrls218 system.mem_ctrls219 system.mem_ctrls220 system.mem_ctrls221 system.mem_ctrls222 system.mem_ctrls223 system.mem_ctrls224 system.mem_ctrls225 system.mem_ctrls226 system.mem_ctrls227 system.mem_ctrls228 system.mem_ctrls229 system.mem_ctrls230 system.mem_ctrls231 system.mem_ctrls232 system.mem_ctrls233 system.mem_ctrls234 system.mem_ctrls235 system.mem_ctrls236 system.mem_ctrls237 system.mem_ctrls238 system.mem_ctrls239 system.mem_ctrls240 system.mem_ctrls241 system.mem_ctrls242 system.mem_ctrls243 system.mem_ctrls244 system.mem_ctrls245 system.mem_ctrls246 system.mem_ctrls247 system.mem_ctrls248 system.mem_ctrls249 system.mem_ctrls250 system.mem_ctrls251 system.mem_ctrls252 system.mem_ctrls253 system.mem_ctrls254 system.mem_ctrls255
mmap_using_noreserve=false
multi_thread=false
num_work_ids=16
p_state_clk_gate_bins=20
p_state_clk_gate_max=1000000000
p_state_clk_gate_min=1
power_model=
readfile=
symbolfile=
thermal_components=
thermal_model=Null
work_begin_ckpt_count=0
work_begin_cpu_id_exit=-1
work_begin_exit_count=0
work_cpus_ckpt_count=0
work_end_ckpt_count=0
work_end_exit_count=0
work_item_id=-1
system_port=system.sys_port_proxy.slave[0]

[system.clk_domain]
type=SrcClockDomain
clock=1
domain_id=-1
eventq_index=0
init_perf_level=0
voltage_domain=system.voltage_domain

[system.cpu000]
type=GarnetSyntheticTraffic
block_offset=6
clk_domain=system.clk_domain
default_p_state=UNDEFINED
eventq_index=0
inj_rate=0.1
inj_vnet=0
memory_size=65536
num_dest=256
num_packets_max=-1
p_state_clk_gate_bins=20
p_state_clk_gate_max=1000000000
p_state_clk_gate_min=1
power_model=
precision=3
response_limit=5000000
sim_cycles=1000
single_dest=-1
single_sender=-1
system=system
traffic_type=bit_rotation
test=system.ruby.l1_cntrl0.sequencer.slave[0]

[system.cpu001]
type=GarnetSyntheticTraffic
block_offset=6
clk_domain=system.clk_domain
default_p_state=UNDEFINED
eventq_index=0
inj_rate=0.1
inj_vnet=0
memory_size=65536
num_dest=256
num_packets_max=-1
p_state_clk_gate_bins=20
p_state_clk_gate_max=1000000000
p_state_clk_gate_min=1
power_model=
precision=3
response_limit=5000000
sim_cycles=1000
single_dest=-1
single_sender=-1
system=system
traffic_type=bit_rotation
test=system.ruby.l1_cntrl1.sequencer.slave[0]

[system.cpu002]
type=GarnetSyntheticTraffic
block_offset=6
clk_domain=system.clk_domain
default_p_state=UNDEFINED
eventq_index=0
inj_rate=0.1
inj_vnet=0
memory_size=65536
num_dest=256
num_packets_max=-1
p_state_clk_gate_bins=20
p_state_clk_gate_max=1000000000
p_state_clk_gate_min=1
power_model=
precision=3
response_limit=5000000
sim_cycles=1000
single_dest=-1
single_sender=-1
system=system
traffic_type=bit_rotation
test=system.ruby.l1_cntrl2.sequencer.slave[0]

[system.cpu003]
type=GarnetSyntheticTraffic
block_offset=6
clk_domain=system.clk_domain
default_p_state=UNDEFINED
eventq_index=0
inj_rate=0.1
inj_vnet=0
memory_size=65536
num_dest=256
num_packets_max=-1
p_state_clk_gate_bins=20
p_state_clk_gate_max=1000000000
p_state_clk_gate_min=1
power_model=
precision=3
response_limit=5000000
sim_cycles=1000
single_dest=-1
single_sender=-1
system=system
traffic_type=bit_rotation
test=system.ruby.l1_cntrl3.sequencer.slave[0]

[system.cpu004]
type=GarnetSyntheticTraffic
block_offset=6
clk_domain=system.clk_domain
default_p_state=UNDEFINED
eventq_index=0
inj_rate=0.1
inj_vnet=0
memory_size=65536
num_dest=256
num_packets_max=-1
p_state_clk_gate_bins=20
p_state_clk_gate_max=1000000000
p_state_clk_gate_min=1
power_model=
precision=3
response_limit=5000000
sim_cycles=1000
single_dest=-1
single_sender=-1
system=system
traffic_type=bit_rotation
test=system.ruby.l1_cntrl4.sequencer.slave[0]

[system.cpu005]
type=GarnetSyntheticTraffic
block_offset=6
clk_domain=system.clk_domain
default_p_state=UNDEFINED
eventq_index=0
inj_rate=0.1
inj_vnet=0
memory_size=65536
num_dest=256
num_packets_max=-1
p_state_clk_gate_bins=20
p_state_clk_gate_max=1000000000
p_state_clk_gate_min=1
power_model=
precision=3
response_limit=5000000
sim_cycles=1000
single_dest=-1
single_sender=-1
system=system
traffic_type=bit_rotation
test=system.ruby.l1_cntrl5.sequencer.slave[0]

[system.cpu006]
type=GarnetSyntheticTraffic
block_offset=6
clk_domain=system.clk_domain
default_p_state=UNDEFINED
eventq_index=0
inj_rate=0.1
inj_vnet=0
memory_size=65536
num_dest=256
num_packets_max=-1
p_state_clk_gate_bins=20
p_state_clk_gate_max=1000000000
p_state_clk_gate_min=1
power_model=
precision=3
response_limit=5000000
sim_cycles=1000
single_dest=-1
single_sender=-1
system=system
traffic_type=bit_rotation
test=system.ruby.l1_cntrl6.sequencer.slave[0]

[system.cpu007]
type=GarnetSyntheticTraffic
block_offset=6
clk_domain=system.clk_domain
default_p_state=UNDEFINED
eventq_index=0
inj_rate=0.1
inj_vnet=0
memory_size=65536
num_dest=256
num_packets_max=-1
p_state_clk_gate_bins=20
p_state_clk_gate_max=1000000000
p_state_clk_gate_min=1
power_model=
precision=3
response_limit=5000000
sim_cycles=1000
single_dest=-1
single_sender=-1
system=system
traffic_type=bit_rotation
test=system.ruby.l1_cntrl7.sequencer.slave[0]

[system.cpu008]
type=GarnetSyntheticTraffic
block_offset=6
clk_domain=system.clk_domain
default_p_state=UNDEFINED
eventq_index=0
inj_rate=0.1
inj_vnet=0
memory_size=65536
num_dest=256
num_packets_max=-1
p_state_clk_gate_bins=20
p_state_clk_gate_max=1000000000
p_state_clk_gate_min=1
power_model=
precision=3
response_limit=5000000
sim_cycles=1000
single_dest=-1
single_sender=-1
system=system
traffic_type=bit_rotation
test=system.ruby.l1_cntrl8.sequencer.slave[0]

[system.cpu009]
type=GarnetSyntheticTraffic
block_offset=6
clk_domain=system.clk_domain
default_p_state=UNDEFINED
eventq_index=0
inj_rate=0.1
inj_vnet=0
memory_size=65536
num_dest=256
num_packets_max=-1
p_state_clk_gate_bins=20
p_state_clk_gate_max=1000000000
p_state_clk_gate_min=1
power_model=
precision=3
response_limit=5000000
sim_cycles=1000
single_dest=-1
single_sender=-1
system=system
traffic_type=bit_rotation
test=system.ruby.l1_cntrl9.sequencer.slave[0]

[system.cpu010]
type=GarnetSyntheticTraffic
block_offset=6
clk_domain=system.clk_domain
default_p_state=UNDEFINED
eventq_index=0
inj_rate=0.1
inj_vnet=0
memory_size=65536
num_dest=256
num_packets_max=-1
p_state_clk_gate_bins=20
p_state_clk_gate_max=1000000000
p_state_clk_gate_min=1
power_model=
precision=3
response_limit=5000000
sim_cycles=1000
single_dest=-1
single_sender=-1
system=system
traffic_type=bit_rotation
test=system.ruby.l1_cntrl10.sequencer.slave[0]

[system.cpu011]
type=GarnetSyntheticTraffic
block_offset=6
clk_domain=system.clk_domain
default_p_state=UNDEFINED
eventq_index=0
inj_rate=0.1
inj_vnet=0
memory_size=65536
num_dest=256
num_packets_max=-1
p_state_clk_gate_bins=20
p_state_clk_gate_max=1000000000
p_state_clk_gate_min=1
power_model=
precision=3
response_limit=5000000
sim_cycles=1000
single_dest=-1
single_sender=-1
system=system
traffic_type=bit_rotation
test=system.ruby.l1_cntrl11.sequencer.slave[0]

[system.cpu012]
type=GarnetSyntheticTraffic
block_offset=6
clk_domain=system.clk_domain
default_p_state=UNDEFINED
eventq_index=0
inj_rate=0.1
inj_vnet=0
memory_size=65536
num_dest=256
num_packets_max=-1
p_state_clk_gate_bins=20
p_state_clk_gate_max=1000000000
p_state_clk_gate_min=1
power_model=
precision=3
response_limit=5000000
sim_cycles=1000
single_dest=-1
single_sender=-1
system=system
traffic_type=bit_rotation
test=system.ruby.l1_cntrl12.sequencer.slave[0]

[system.cpu013]
type=GarnetSyntheticTraffic
block_offset=6
clk_domain=system.clk_domain
default_p_state=UNDEFINED
eventq_index=0
inj_rate=0.1
inj_vnet=0
memory_size=65536
num_dest=256
num_packets_max=-1
p_state_clk_gate_bins=20
p_state_clk_gate_max=1000000000
p_state_clk_gate_min=1
power_model=
precision=3
response_limit=5000000
sim_cycles=1000
single_dest=-1
single_sender=-1
system=system
traffic_type=bit_rotation
test=system.ruby.l1_cntrl13.sequencer.slave[0]

[system.cpu014]
type=GarnetSyntheticTraffic
block_offset=6
clk_domain=system.clk_domain
default_p_state=UNDEFINED
eventq_index=0
inj_rate=0.1
inj_vnet=0
memory_size=65536
num_dest=256
num_packets_max=-1
p_state_clk_gate_bins=20
p_state_clk_gate_max=1000000000
p_state_clk_gate_min=1
power_model=
precision=3
response_limit=5000000
sim_cycles=1000
single_dest=-1
single_sender=-1
system=system
traffic_type=bit_rotation
test=system.ruby.l1_cntrl14.sequencer.slave[0]

[system.cpu015]
type=GarnetSyntheticTraffic
block_offset=6
clk_domain=system.clk_domain
default_p_state=UNDEFINED
eventq_index=0
inj_rate=0.1
inj_vnet=0
memory_size=65536
num_dest=256
num_packets_max=-1
p_state_clk_gate_bins=20
p_state_clk_gate_max=1000000000
p_state_clk_gate_min=1
power_model=
precision=3
response_limit=5000000
sim_cycles=1000
single_dest=-1
single_sender=-1
system=system
traffic_type=bit_rotation
test=system.ruby.l1_cntrl15.sequencer.slave[0]

[system.cpu016]
type=GarnetSyntheticTraffic
block_offset=6
clk_domain=system.clk_domain
default_p_state=UNDEFINED
eventq_index=0
inj_rate=0.1
inj_vnet=0
memory_size=65536
num_dest=256
num_packets_max=-1
p_state_clk_gate_bins=20
p_state_clk_gate_max=1000000000
p_state_clk_gate_min=1
power_model=
precision=3
response_limit=5000000
sim_cycles=1000
single_dest=-1
single_sender=-1
system=system
traffic_type=bit_rotation
test=system.ruby.l1_cntrl16.sequencer.slave[0]

[system.cpu017]
type=GarnetSyntheticTraffic
block_offset=6
clk_domain=system.clk_domain
default_p_state=UNDEFINED
eventq_index=0
inj_rate=0.1
inj_vnet=0
memory_size=65536
num_dest=256
num_packets_max=-1
p_state_clk_gate_bins=20
p_state_clk_gate_max=1000000000
p_state_clk_gate_min=1
power_model=
precision=3
response_limit=5000000
sim_cycles=1000
single_dest=-1
single_sender=-1
system=system
traffic_type=bit_rotation
test=system.ruby.l1_cntrl17.sequencer.slave[0]

[system.cpu018]
type=GarnetSyntheticTraffic
block_offset=6
clk_domain=system.clk_domain
default_p_state=UNDEFINED
eventq_index=0
inj_rate=0.1
inj_vnet=0
memory_size=65536
num_dest=256
num_packets_max=-1
p_state_clk_gate_bins=20
p_state_clk_gate_max=1000000000
p_state_clk_gate_min=1
power_model=
precision=3
response_limit=5000000
sim_cycles=1000
single_dest=-1
single_sender=-1
system=system
traffic_type=bit_rotation
test=system.ruby.l1_cntrl18.sequencer.slave[0]

[system.cpu019]
type=GarnetSyntheticTraffic
block_offset=6
clk_domain=system.clk_domain
default_p_state=UNDEFINED
eventq_index=0
inj_rate=0.1
inj_vnet=0
memory_size=65536
num_dest=256
num_packets_max=-1
p_state_clk_gate_bins=20
p_state_clk_gate_max=1000000000
p_state_clk_gate_min=1
power_model=
precision=3
response_limit=5000000
sim_cycles=1000
single_dest=-1
single_sender=-1
system=system
traffic_type=bit_rotation
test=system.ruby.l1_cntrl19.sequencer.slave[0]

[system.cpu020]
type=GarnetSyntheticTraffic
block_offset=6
clk_domain=system.clk_domain
default_p_state=UNDEFINED
eventq_index=0
inj_rate=0.1
inj_vnet=0
memory_size=65536
num_dest=256
num_packets_max=-1
p_state_clk_gate_bins=20
p_state_clk_gate_max=1000000000
p_state_clk_gate_min=1
power_model=
precision=3
response_limit=5000000
sim_cycles=1000
single_dest=-1
single_sender=-1
system=system
traffic_type=bit_rotation
test=system.ruby.l1_cntrl20.sequencer.slave[0]

[system.cpu021]
type=GarnetSyntheticTraffic
block_offset=6
clk_domain=system.clk_domain
default_p_state=UNDEFINED
eventq_index=0
inj_rate=0.1
inj_vnet=0
memory_size=65536
num_dest=256
num_packets_max=-1
p_state_clk_gate_bins=20
p_state_clk_gate_max=1000000000
p_state_clk_gate_min=1
power_model=
precision=3
response_limit=5000000
sim_cycles=1000
single_dest=-1
single_sender=-1
system=system
traffic_type=bit_rotation
test=system.ruby.l1_cntrl21.sequencer.slave[0]

[system.cpu022]
type=GarnetSyntheticTraffic
block_offset=6
clk_domain=system.clk_domain
default_p_state=UNDEFINED
eventq_index=0
inj_rate=0.1
inj_vnet=0
memory_size=65536
num_dest=256
num_packets_max=-1
p_state_clk_gate_bins=20
p_state_clk_gate_max=1000000000
p_state_clk_gate_min=1
power_model=
precision=3
response_limit=5000000
sim_cycles=1000
single_dest=-1
single_sender=-1
system=system
traffic_type=bit_rotation
test=system.ruby.l1_cntrl22.sequencer.slave[0]

[system.cpu023]
type=GarnetSyntheticTraffic
block_offset=6
clk_domain=system.clk_domain
default_p_state=UNDEFINED
eventq_index=0
inj_rate=0.1
inj_vnet=0
memory_size=65536
num_dest=256
num_packets_max=-1
p_state_clk_gate_bins=20
p_state_clk_gate_max=1000000000
p_state_clk_gate_min=1
power_model=
precision=3
response_limit=5000000
sim_cycles=1000
single_dest=-1
single_sender=-1
system=system
traffic_type=bit_rotation
test=system.ruby.l1_cntrl23.sequencer.slave[0]

[system.cpu024]
type=GarnetSyntheticTraffic
block_offset=6
clk_domain=system.clk_domain
default_p_state=UNDEFINED
eventq_index=0
inj_rate=0.1
inj_vnet=0
memory_size=65536
num_dest=256
num_packets_max=-1
p_state_clk_gate_bins=20
p_state_clk_gate_max=1000000000
p_state_clk_gate_min=1
power_model=
precision=3
response_limit=5000000
sim_cycles=1000
single_dest=-1
single_sender=-1
system=system
traffic_type=bit_rotation
test=system.ruby.l1_cntrl24.sequencer.slave[0]

[system.cpu025]
type=GarnetSyntheticTraffic
block_offset=6
clk_domain=system.clk_domain
default_p_state=UNDEFINED
eventq_index=0
inj_rate=0.1
inj_vnet=0
memory_size=65536
num_dest=256
num_packets_max=-1
p_state_clk_gate_bins=20
p_state_clk_gate_max=1000000000
p_state_clk_gate_min=1
power_model=
precision=3
response_limit=5000000
sim_cycles=1000
single_dest=-1
single_sender=-1
system=system
traffic_type=bit_rotation
test=system.ruby.l1_cntrl25.sequencer.slave[0]

[system.cpu026]
type=GarnetSyntheticTraffic
block_offset=6
clk_domain=system.clk_domain
default_p_state=UNDEFINED
eventq_index=0
inj_rate=0.1
inj_vnet=0
memory_size=65536
num_dest=256
num_packets_max=-1
p_state_clk_gate_bins=20
p_state_clk_gate_max=1000000000
p_state_clk_gate_min=1
power_model=
precision=3
response_limit=5000000
sim_cycles=1000
single_dest=-1
single_sender=-1
system=system
traffic_type=bit_rotation
test=system.ruby.l1_cntrl26.sequencer.slave[0]

[system.cpu027]
type=GarnetSyntheticTraffic
block_offset=6
clk_domain=system.clk_domain
default_p_state=UNDEFINED
eventq_index=0
inj_rate=0.1
inj_vnet=0
memory_size=65536
num_dest=256
num_packets_max=-1
p_state_clk_gate_bins=20
p_state_clk_gate_max=1000000000
p_state_clk_gate_min=1
power_model=
precision=3
response_limit=5000000
sim_cycles=1000
single_dest=-1
single_sender=-1
system=system
traffic_type=bit_rotation
test=system.ruby.l1_cntrl27.sequencer.slave[0]

[system.cpu028]
type=GarnetSyntheticTraffic
block_offset=6
clk_domain=system.clk_domain
default_p_state=UNDEFINED
eventq_index=0
inj_rate=0.1
inj_vnet=0
memory_size=65536
num_dest=256
num_packets_max=-1
p_state_clk_gate_bins=20
p_state_clk_gate_max=1000000000
p_state_clk_gate_min=1
power_model=
precision=3
response_limit=5000000
sim_cycles=1000
single_dest=-1
single_sender=-1
system=system
traffic_type=bit_rotation
test=system.ruby.l1_cntrl28.sequencer.slave[0]

[system.cpu029]
type=GarnetSyntheticTraffic
block_offset=6
clk_domain=system.clk_domain
default_p_state=UNDEFINED
eventq_index=0
inj_rate=0.1
inj_vnet=0
memory_size=65536
num_dest=256
num_packets_max=-1
p_state_clk_gate_bins=20
p_state_clk_gate_max=1000000000
p_state_clk_gate_min=1
power_model=
precision=3
response_limit=5000000
sim_cycles=1000
single_dest=-1
single_sender=-1
system=system
traffic_type=bit_rotation
test=system.ruby.l1_cntrl29.sequencer.slave[0]

[system.cpu030]
type=GarnetSyntheticTraffic
block_offset=6
clk_domain=system.clk_domain
default_p_state=UNDEFINED
eventq_index=0
inj_rate=0.1
inj_vnet=0
memory_size=65536
num_dest=256
num_packets_max=-1
p_state_clk_gate_bins=20
p_state_clk_gate_max=1000000000
p_state_clk_gate_min=1
power_model=
precision=3
response_limit=5000000
sim_cycles=1000
single_dest=-1
single_sender=-1
system=system
traffic_type=bit_rotation
test=system.ruby.l1_cntrl30.sequencer.slave[0]

[system.cpu031]
type=GarnetSyntheticTraffic
block_offset=6
clk_domain=system.clk_domain
default_p_state=UNDEFINED
eventq_index=0
inj_rate=0.1
inj_vnet=0
memory_size=65536
num_dest=256
num_packets_max=-1
p_state_clk_gate_bins=20
p_state_clk_gate_max=1000000000
p_state_clk_gate_min=1
power_model=
precision=3
response_limit=5000000
sim_cycles=1000
single_dest=-1
single_sender=-1
system=system
traffic_type=bit_rotation
test=system.ruby.l1_cntrl31.sequencer.slave[0]

[system.cpu032]
type=GarnetSyntheticTraffic
block_offset=6
clk_domain=system.clk_domain
default_p_state=UNDEFINED
eventq_index=0
inj_rate=0.1
inj_vnet=0
memory_size=65536
num_dest=256
num_packets_max=-1
p_state_clk_gate_bins=20
p_state_clk_gate_max=1000000000
p_state_clk_gate_min=1
power_model=
precision=3
response_limit=5000000
sim_cycles=1000
single_dest=-1
single_sender=-1
system=system
traffic_type=bit_rotation
test=system.ruby.l1_cntrl32.sequencer.slave[0]

[system.cpu033]
type=GarnetSyntheticTraffic
block_offset=6
clk_domain=system.clk_domain
default_p_state=UNDEFINED
eventq_index=0
inj_rate=0.1
inj_vnet=0
memory_size=65536
num_dest=256
num_packets_max=-1
p_state_clk_gate_bins=20
p_state_clk_gate_max=1000000000
p_state_clk_gate_min=1
power_model=
precision=3
response_limit=5000000
sim_cycles=1000
single_dest=-1
single_sender=-1
system=system
traffic_type=bit_rotation
test=system.ruby.l1_cntrl33.sequencer.slave[0]

[system.cpu034]
type=GarnetSyntheticTraffic
block_offset=6
clk_domain=system.clk_domain
default_p_state=UNDEFINED
eventq_index=0
inj_rate=0.1
inj_vnet=0
memory_size=65536
num_dest=256
num_packets_max=-1
p_state_clk_gate_bins=20
p_state_clk_gate_max=1000000000
p_state_clk_gate_min=1
power_model=
precision=3
response_limit=5000000
sim_cycles=1000
single_dest=-1
single_sender=-1
system=system
traffic_type=bit_rotation
test=system.ruby.l1_cntrl34.sequencer.slave[0]

[system.cpu035]
type=GarnetSyntheticTraffic
block_offset=6
clk_domain=system.clk_domain
default_p_state=UNDEFINED
eventq_index=0
inj_rate=0.1
inj_vnet=0
memory_size=65536
num_dest=256
num_packets_max=-1
p_state_clk_gate_bins=20
p_state_clk_gate_max=1000000000
p_state_clk_gate_min=1
power_model=
precision=3
response_limit=5000000
sim_cycles=1000
single_dest=-1
single_sender=-1
system=system
traffic_type=bit_rotation
test=system.ruby.l1_cntrl35.sequencer.slave[0]

[system.cpu036]
type=GarnetSyntheticTraffic
block_offset=6
clk_domain=system.clk_domain
default_p_state=UNDEFINED
eventq_index=0
inj_rate=0.1
inj_vnet=0
memory_size=65536
num_dest=256
num_packets_max=-1
p_state_clk_gate_bins=20
p_state_clk_gate_max=1000000000
p_state_clk_gate_min=1
power_model=
precision=3
response_limit=5000000
sim_cycles=1000
single_dest=-1
single_sender=-1
system=system
traffic_type=bit_rotation
test=system.ruby.l1_cntrl36.sequencer.slave[0]

[system.cpu037]
type=GarnetSyntheticTraffic
block_offset=6
clk_domain=system.clk_domain
default_p_state=UNDEFINED
eventq_index=0
inj_rate=0.1
inj_vnet=0
memory_size=65536
num_dest=256
num_packets_max=-1
p_state_clk_gate_bins=20
p_state_clk_gate_max=1000000000
p_state_clk_gate_min=1
power_model=
precision=3
response_limit=5000000
sim_cycles=1000
single_dest=-1
single_sender=-1
system=system
traffic_type=bit_rotation
test=system.ruby.l1_cntrl37.sequencer.slave[0]

[system.cpu038]
type=GarnetSyntheticTraffic
block_offset=6
clk_domain=system.clk_domain
default_p_state=UNDEFINED
eventq_index=0
inj_rate=0.1
inj_vnet=0
memory_size=65536
num_dest=256
num_packets_max=-1
p_state_clk_gate_bins=20
p_state_clk_gate_max=1000000000
p_state_clk_gate_min=1
power_model=
precision=3
response_limit=5000000
sim_cycles=1000
single_dest=-1
single_sender=-1
system=system
traffic_type=bit_rotation
test=system.ruby.l1_cntrl38.sequencer.slave[0]

[system.cpu039]
type=GarnetSyntheticTraffic
block_offset=6
clk_domain=system.clk_domain
default_p_state=UNDEFINED
eventq_index=0
inj_rate=0.1
inj_vnet=0
memory_size=65536
num_dest=256
num_packets_max=-1
p_state_clk_gate_bins=20
p_state_clk_gate_max=1000000000
p_state_clk_gate_min=1
power_model=
precision=3
response_limit=5000000
sim_cycles=1000
single_dest=-1
single_sender=-1
system=system
traffic_type=bit_rotation